*
*DIODES_INC_SPICE_MODEL
*ORIGIN=DZSL_DPG
*SIMULATOR=PSPICE
*DATE=21/04/2009
*VERSION=1
*
.MODEL DSS5140V PNP IS=3e-13 NF=1 ISE=8e-14 NE=1.47 BF=430
+ VAF=27 IKF=2.35 ISC=1e-13 NC=1.25 BR=29 VAR=9.3 IKR=0.5 RE=55e-3
+ RB=500e-3 RC=12e-3 CJE=158e-12 VJE=1.0 MJE=0.55 CJC=51e-12
+ VJC=0.7 MJC=0.45 TF=6e-10 TR=13.6e-9 XTB=1.6 QUASIMOD=1
+ RCO=0.85 GAMMA=6e-10
*
*$