* PSpice Model Editor - Version 16.6.0
*$
.model Mbreakn NMOS VTO=2
*$
